<?xml version="1.0" encoding="UTF-8"?>

<!-- generated on 2024-10-07 10:18:22 by Eclipse SUMO netedit Version 1.20.0
<configuration xmlns:xsi="http://www.w3.org/2001/XMLSchema-instance" xsi:noNamespaceSchemaLocation="http://sumo.dlr.de/xsd/neteditConfiguration.xsd">

    <input>
        <sumocfg-file value="D:\project_C\importent sumo\import.sumocfg"/>
        <additional-files value=""/>
        <route-files value="D:\project_C\importent sumo\route.rou.xml"/>
        <sumo-net-file value="D:\project_C\importent sumo\sumu.net.xml"/>
    </input>

    <output>
        <output-file value="D:\project_C\importent sumo\sumu.net.xml"/>
    </output>

    <processing>
        <geometry.min-radius.fix.railways value="false"/>
        <geometry.max-grade.fix value="false"/>
        <offset.disable-normalization value="true"/>
        <lefthand value="0"/>
    </processing>

    <junctions>
        <no-turnarounds value="true"/>
        <junctions.corner-detail value="5"/>
        <junctions.limit-turn-speed value="5.50"/>
        <rectangular-lane-cut value="0"/>
    </junctions>

    <pedestrian>
        <walkingareas value="0"/>
    </pedestrian>

</configuration>
-->

<net version="1.20" junctionCornerDetail="5" limitTurnSpeed="5.50" xmlns:xsi="http://www.w3.org/2001/XMLSchema-instance" xsi:noNamespaceSchemaLocation="http://sumo.dlr.de/xsd/net_file.xsd">

    <location netOffset="0.00,0.00" convBoundary="-100.00,0.00,100.00,100.00" origBoundary="-10000000000.00,-10000000000.00,10000000000.00,10000000000.00" projParameter="!"/>

    <edge id=":J0_0" function="internal">
        <lane id=":J0_0_0" index="0" speed="13.89" length="20.80" shape="10.40,104.80 -10.40,104.80"/>
        <lane id=":J0_0_1" index="1" speed="13.89" length="20.80" shape="10.40,101.60 -10.40,101.60"/>
    </edge>
    <edge id=":J0_2" function="internal">
        <lane id=":J0_2_0" index="0" speed="9.26" length="19.35" shape="10.40,101.60 5.15,100.85 1.40,98.60 -0.85,94.85 -1.60,89.60"/>
    </edge>
    <edge id=":J0_3" function="internal">
        <lane id=":J0_3_0" index="0" speed="6.51" length="9.03" shape="4.80,89.60 5.15,92.05 6.20,93.80 7.95,94.85 10.40,95.20"/>
    </edge>
    <edge id=":J0_4" function="internal">
        <lane id=":J0_4_0" index="0" speed="9.26" length="19.35" shape="1.60,89.60 0.85,94.85 -1.40,98.60 -5.15,100.85 -10.40,101.60"/>
    </edge>
    <edge id=":J0_5" function="internal">
        <lane id=":J0_5_0" index="0" speed="6.51" length="9.03" shape="-10.40,95.20 -7.95,94.85 -6.20,93.80 -5.15,92.05 -4.80,89.60"/>
    </edge>
    <edge id=":J0_6" function="internal">
        <lane id=":J0_6_0" index="0" speed="13.89" length="20.80" shape="-10.40,95.20 10.40,95.20"/>
        <lane id=":J0_6_1" index="1" speed="13.89" length="20.80" shape="-10.40,98.40 10.40,98.40"/>
    </edge>
    <edge id=":J1_0" function="internal">
        <lane id=":J1_0_0" index="0" speed="8.96" length="18.06" shape="104.80,93.60 104.10,98.50 102.00,102.00 98.50,104.10 93.60,104.80"/>
        <lane id=":J1_0_1" index="1" speed="7.66" length="12.90" shape="101.60,93.60 101.10,97.10 99.60,99.60 97.10,101.10 93.60,101.60"/>
    </edge>
    <edge id=":J1_2" function="internal">
        <lane id=":J1_2_0" index="0" speed="3.90" length="2.58" shape="93.60,95.20 94.30,95.10 94.80,94.80 95.10,94.30 95.20,93.60"/>
        <lane id=":J1_2_1" index="1" speed="6.08" length="7.74" shape="93.60,98.40 95.70,98.10 97.20,97.20 98.10,95.70 98.40,93.60"/>
    </edge>
    <edge id=":J2_0" function="internal">
        <lane id=":J2_0_0" index="0" speed="3.90" length="2.58" shape="95.20,6.40 95.10,5.70 94.80,5.20 94.30,4.90 93.60,4.80"/>
        <lane id=":J2_0_1" index="1" speed="6.08" length="7.74" shape="98.40,6.40 98.10,4.30 97.20,2.80 95.70,1.90 93.60,1.60"/>
    </edge>
    <edge id=":J2_2" function="internal">
        <lane id=":J2_2_0" index="0" speed="8.96" length="18.06" shape="93.60,-4.80 98.50,-4.10 102.00,-2.00 104.10,1.50 104.80,6.40"/>
        <lane id=":J2_2_1" index="1" speed="7.66" length="12.90" shape="93.60,-1.60 97.10,-1.10 99.60,0.40 101.10,2.90 101.60,6.40"/>
    </edge>
    <edge id=":J3_0" function="internal">
        <lane id=":J3_0_0" index="0" speed="6.51" length="9.03" shape="-4.80,10.40 -5.15,7.95 -6.20,6.20 -7.95,5.15 -10.40,4.80"/>
    </edge>
    <edge id=":J3_1" function="internal">
        <lane id=":J3_1_0" index="0" speed="9.26" length="19.35" shape="-1.60,10.40 -0.85,5.15 1.40,1.40 5.15,-0.85 10.40,-1.60"/>
    </edge>
    <edge id=":J3_2" function="internal">
        <lane id=":J3_2_0" index="0" speed="6.51" length="9.03" shape="10.40,4.80 7.95,5.15 6.20,6.20 5.15,7.95 4.80,10.40"/>
    </edge>
    <edge id=":J3_3" function="internal">
        <lane id=":J3_3_0" index="0" speed="13.89" length="20.80" shape="10.40,4.80 -10.40,4.80"/>
        <lane id=":J3_3_1" index="1" speed="13.89" length="20.80" shape="10.40,1.60 -10.40,1.60"/>
    </edge>
    <edge id=":J3_5" function="internal">
        <lane id=":J3_5_0" index="0" speed="13.89" length="20.80" shape="-10.40,-4.80 10.40,-4.80"/>
        <lane id=":J3_5_1" index="1" speed="13.89" length="20.80" shape="-10.40,-1.60 10.40,-1.60"/>
    </edge>
    <edge id=":J3_7" function="internal">
        <lane id=":J3_7_0" index="0" speed="9.26" length="19.35" shape="-10.40,-1.60 -5.15,-0.85 -1.40,1.40 0.85,5.15 1.60,10.40"/>
    </edge>
    <edge id=":J4_0" function="internal">
        <lane id=":J4_0_0" index="0" speed="8.96" length="18.06" shape="-93.60,104.80 -98.50,104.10 -102.00,102.00 -104.10,98.50 -104.80,93.60"/>
        <lane id=":J4_0_1" index="1" speed="7.66" length="12.90" shape="-93.60,101.60 -97.10,101.10 -99.60,99.60 -101.10,97.10 -101.60,93.60"/>
    </edge>
    <edge id=":J4_2" function="internal">
        <lane id=":J4_2_0" index="0" speed="3.90" length="2.58" shape="-95.20,93.60 -95.10,94.30 -94.80,94.80 -94.30,95.10 -93.60,95.20"/>
        <lane id=":J4_2_1" index="1" speed="6.08" length="7.74" shape="-98.40,93.60 -98.10,95.70 -97.20,97.20 -95.70,98.10 -93.60,98.40"/>
    </edge>
    <edge id=":J5_0" function="internal">
        <lane id=":J5_0_0" index="0" speed="8.96" length="18.06" shape="-104.80,6.40 -104.10,1.50 -102.00,-2.00 -98.50,-4.10 -93.60,-4.80"/>
        <lane id=":J5_0_1" index="1" speed="7.66" length="12.90" shape="-101.60,6.40 -101.10,2.90 -99.60,0.40 -97.10,-1.10 -93.60,-1.60"/>
    </edge>
    <edge id=":J5_2" function="internal">
        <lane id=":J5_2_0" index="0" speed="3.90" length="2.58" shape="-93.60,4.80 -94.30,4.90 -94.80,5.20 -95.10,5.70 -95.20,6.40"/>
        <lane id=":J5_2_1" index="1" speed="6.08" length="7.74" shape="-93.60,1.60 -95.70,1.90 -97.20,2.80 -98.10,4.30 -98.40,6.40"/>
    </edge>

    <edge id="-E0" from="J1" to="J0" priority="-1">
        <lane id="-E0_0" index="0" speed="13.89" length="83.20" shape="93.60,104.80 10.40,104.80"/>
        <lane id="-E0_1" index="1" speed="13.89" length="83.20" shape="93.60,101.60 10.40,101.60"/>
    </edge>
    <edge id="-E2" from="J0" to="J3" priority="-1">
        <lane id="-E2_0" index="0" speed="13.89" length="79.20" shape="-4.80,89.60 -4.80,10.40"/>
        <lane id="-E2_1" index="1" speed="13.89" length="79.20" shape="-1.60,89.60 -1.60,10.40"/>
    </edge>
    <edge id="-E3" from="J3" to="J2" priority="-1">
        <lane id="-E3_0" index="0" speed="13.89" length="83.20" shape="10.40,-4.80 93.60,-4.80"/>
        <lane id="-E3_1" index="1" speed="13.89" length="83.20" shape="10.40,-1.60 93.60,-1.60"/>
    </edge>
    <edge id="-E4" from="J4" to="J0" priority="-1">
        <lane id="-E4_0" index="0" speed="13.89" length="83.20" shape="-93.60,95.20 -10.40,95.20"/>
        <lane id="-E4_1" index="1" speed="13.89" length="83.20" shape="-93.60,98.40 -10.40,98.40"/>
    </edge>
    <edge id="-E6" from="J3" to="J5" priority="-1">
        <lane id="-E6_0" index="0" speed="13.89" length="83.20" shape="-10.40,4.80 -93.60,4.80"/>
        <lane id="-E6_1" index="1" speed="13.89" length="83.20" shape="-10.40,1.60 -93.60,1.60"/>
    </edge>
    <edge id="-E7" from="J2" to="J1" priority="-1">
        <lane id="-E7_0" index="0" speed="13.89" length="87.20" shape="104.80,6.40 104.80,93.60"/>
        <lane id="-E7_1" index="1" speed="13.89" length="87.20" shape="101.60,6.40 101.60,93.60"/>
    </edge>
    <edge id="-E8" from="J4" to="J5" priority="-1">
        <lane id="-E8_0" index="0" speed="13.89" length="87.20" shape="-104.80,93.60 -104.80,6.40"/>
        <lane id="-E8_1" index="1" speed="13.89" length="87.20" shape="-101.60,93.60 -101.60,6.40"/>
    </edge>
    <edge id="E0" from="J0" to="J1" priority="-1">
        <lane id="E0_0" index="0" speed="13.89" length="83.20" shape="10.40,95.20 93.60,95.20"/>
        <lane id="E0_1" index="1" speed="13.89" length="83.20" shape="10.40,98.40 93.60,98.40"/>
    </edge>
    <edge id="E2" from="J3" to="J0" priority="-1">
        <lane id="E2_0" index="0" speed="13.89" length="79.20" shape="4.80,10.40 4.80,89.60"/>
        <lane id="E2_1" index="1" speed="13.89" length="79.20" shape="1.60,10.40 1.60,89.60"/>
    </edge>
    <edge id="E3" from="J2" to="J3" priority="-1">
        <lane id="E3_0" index="0" speed="13.89" length="83.20" shape="93.60,4.80 10.40,4.80"/>
        <lane id="E3_1" index="1" speed="13.89" length="83.20" shape="93.60,1.60 10.40,1.60"/>
    </edge>
    <edge id="E4" from="J0" to="J4" priority="-1">
        <lane id="E4_0" index="0" speed="13.89" length="83.20" shape="-10.40,104.80 -93.60,104.80"/>
        <lane id="E4_1" index="1" speed="13.89" length="83.20" shape="-10.40,101.60 -93.60,101.60"/>
    </edge>
    <edge id="E6" from="J5" to="J3" priority="-1">
        <lane id="E6_0" index="0" speed="13.89" length="83.20" shape="-93.60,-4.80 -10.40,-4.80"/>
        <lane id="E6_1" index="1" speed="13.89" length="83.20" shape="-93.60,-1.60 -10.40,-1.60"/>
    </edge>
    <edge id="E7" from="J1" to="J2" priority="-1">
        <lane id="E7_0" index="0" speed="13.89" length="87.20" shape="95.20,93.60 95.20,6.40"/>
        <lane id="E7_1" index="1" speed="13.89" length="87.20" shape="98.40,93.60 98.40,6.40"/>
    </edge>
    <edge id="E8" from="J5" to="J4" priority="-1">
        <lane id="E8_0" index="0" speed="13.89" length="87.20" shape="-95.20,6.40 -95.20,93.60"/>
        <lane id="E8_1" index="1" speed="13.89" length="87.20" shape="-98.40,6.40 -98.40,93.60"/>
    </edge>

    <tlLogic id="J0" type="static" programID="0" offset="0">
        <phase duration="20" state="rrrrrrrrr"/>
        <phase duration="11" state="rrrrrggGr"/>
        <phase duration="3"  state="rrrrrGyyr"/>
        <phase duration="9"  state="gggrrrrrr"/>
        <phase duration="3"  state="yyyrrrrrr"/>
        <phase duration="10" state="rrrGGGrrr"/>
        <phase duration="10" state="rrryyyrrr"/>
        <phase duration="10" state="gggrrrrrr"/>
    </tlLogic>
    <tlLogic id="J3" type="static" programID="0" offset="0">
        <phase duration="35" state="rrrrrrrr"/>
        <phase duration="13" state="ggGrrrrr"/>
        <phase duration="3"  state="yyGrrrrr"/>
        <phase duration="15" state="rrgGggrr"/>
        <phase duration="3"  state="rrGyyyrr"/>
        <phase duration="12" state="rrrrrggg"/>
    </tlLogic>

    <junction id="J0" type="traffic_light" x="0.00" y="100.00" incLanes="-E0_0 -E0_1 E2_0 E2_1 -E4_0 -E4_1" intLanes=":J0_0_0 :J0_0_1 :J0_2_0 :J0_3_0 :J0_4_0 :J0_5_0 :J0_6_0 :J0_6_1" shape="10.40,106.40 10.40,93.60 8.18,93.16 7.40,92.60 6.84,91.82 6.51,90.82 6.40,89.60 -6.40,89.60 -6.84,91.82 -7.40,92.60 -8.18,93.16 -9.18,93.49 -10.40,93.60 -10.40,106.40">
        <request index="0" response="00000000" foes="00010000" cont="0"/>
        <request index="1" response="00000000" foes="00010000" cont="0"/>
        <request index="2" response="11000000" foes="11010000" cont="0"/>
        <request index="3" response="11000000" foes="11000000" cont="0"/>
        <request index="4" response="11000111" foes="11000111" cont="0"/>
        <request index="5" response="00000000" foes="00000000" cont="0"/>
        <request index="6" response="00000000" foes="00011100" cont="0"/>
        <request index="7" response="00000000" foes="00011100" cont="0"/>
    </junction>
    <junction id="J1" type="priority" x="100.00" y="100.00" incLanes="-E7_0 -E7_1 E0_0 E0_1" intLanes=":J1_0_0 :J1_0_1 :J1_2_0 :J1_2_1" shape="106.40,93.60 93.60,93.60 93.60,106.40 97.51,106.04 100.71,104.98 103.20,103.20 104.98,100.71 106.04,97.51">
        <request index="0" response="0000" foes="0000" cont="0"/>
        <request index="1" response="0000" foes="0000" cont="0"/>
        <request index="2" response="0000" foes="0000" cont="0"/>
        <request index="3" response="0000" foes="0000" cont="0"/>
    </junction>
    <junction id="J2" type="priority" x="100.00" y="0.00" incLanes="E7_0 E7_1 -E3_0 -E3_1" intLanes=":J2_0_0 :J2_0_1 :J2_2_0 :J2_2_1" shape="93.60,6.40 106.40,6.40 106.04,2.49 104.98,-0.71 103.20,-3.20 100.71,-4.98 97.51,-6.04 93.60,-6.40">
        <request index="0" response="0000" foes="0000" cont="0"/>
        <request index="1" response="0000" foes="0000" cont="0"/>
        <request index="2" response="0000" foes="0000" cont="0"/>
        <request index="3" response="0000" foes="0000" cont="0"/>
    </junction>
    <junction id="J3" type="traffic_light" x="0.00" y="0.00" incLanes="-E2_0 -E2_1 E3_0 E3_1 E6_0 E6_1" intLanes=":J3_0_0 :J3_1_0 :J3_2_0 :J3_3_0 :J3_3_1 :J3_5_0 :J3_5_1 :J3_7_0" shape="-6.40,10.40 6.40,10.40 6.84,8.18 7.40,7.40 8.18,6.84 9.18,6.51 10.40,6.40 10.40,-6.40 -10.40,-6.40 -10.40,6.40 -8.18,6.84 -7.40,7.40 -6.84,8.18 -6.51,9.18">
        <request index="0" response="00011000" foes="00011000" cont="0"/>
        <request index="1" response="11111000" foes="11111000" cont="0"/>
        <request index="2" response="00000000" foes="00000000" cont="0"/>
        <request index="3" response="00000000" foes="10000011" cont="0"/>
        <request index="4" response="00000000" foes="10000011" cont="0"/>
        <request index="5" response="00000000" foes="00000010" cont="0"/>
        <request index="6" response="00000000" foes="00000010" cont="0"/>
        <request index="7" response="00011000" foes="00011010" cont="0"/>
    </junction>
    <junction id="J4" type="priority" x="-100.00" y="100.00" incLanes="E4_0 E4_1 E8_0 E8_1" intLanes=":J4_0_0 :J4_0_1 :J4_2_0 :J4_2_1" shape="-93.60,106.40 -93.60,93.60 -106.40,93.60 -106.04,97.51 -104.98,100.71 -103.20,103.20 -100.71,104.98 -97.51,106.04">
        <request index="0" response="0000" foes="0000" cont="0"/>
        <request index="1" response="0000" foes="0000" cont="0"/>
        <request index="2" response="0000" foes="0000" cont="0"/>
        <request index="3" response="0000" foes="0000" cont="0"/>
    </junction>
    <junction id="J5" type="priority" x="-100.00" y="0.00" incLanes="-E8_0 -E8_1 -E6_0 -E6_1" intLanes=":J5_0_0 :J5_0_1 :J5_2_0 :J5_2_1" shape="-106.40,6.40 -93.60,6.40 -93.60,-6.40 -97.51,-6.04 -100.71,-4.98 -103.20,-3.20 -104.98,-0.71 -106.04,2.49">
        <request index="0" response="0000" foes="0000" cont="0"/>
        <request index="1" response="0000" foes="0000" cont="0"/>
        <request index="2" response="0000" foes="0000" cont="0"/>
        <request index="3" response="0000" foes="0000" cont="0"/>
    </junction>

    <connection from="-E0" to="E4" fromLane="0" toLane="0" via=":J0_0_0" tl="J0" linkIndex="0" dir="s" state="O"/>
    <connection from="-E0" to="E4" fromLane="1" toLane="1" via=":J0_0_1" tl="J0" linkIndex="1" dir="s" state="O"/>
    <connection from="-E0" to="-E2" fromLane="1" toLane="1" via=":J0_2_0" tl="J0" linkIndex="2" dir="l" state="o"/>
    <connection from="-E2" to="-E6" fromLane="0" toLane="0" via=":J3_0_0" tl="J3" linkIndex="0" dir="r" state="o"/>
    <connection from="-E2" to="-E3" fromLane="1" toLane="1" via=":J3_1_0" tl="J3" linkIndex="1" dir="l" state="o"/>
    <connection from="-E3" to="-E7" fromLane="0" toLane="0" via=":J2_2_0" dir="l" state="M"/>
    <connection from="-E3" to="-E7" fromLane="1" toLane="1" via=":J2_2_1" dir="l" state="M"/>
    <connection from="-E4" to="-E2" fromLane="0" toLane="0" via=":J0_5_0" tl="J0" linkIndex="5" dir="r" state="O"/>
    <connection from="-E4" to="E0" fromLane="0" toLane="0" via=":J0_6_0" tl="J0" linkIndex="6" dir="s" state="O"/>
    <connection from="-E4" to="E0" fromLane="1" toLane="1" via=":J0_6_1" tl="J0" linkIndex="7" dir="s" state="O"/>
    <connection from="-E6" to="E8" fromLane="0" toLane="0" via=":J5_2_0" dir="r" state="M"/>
    <connection from="-E6" to="E8" fromLane="1" toLane="1" via=":J5_2_1" dir="r" state="M"/>
    <connection from="-E7" to="-E0" fromLane="0" toLane="0" via=":J1_0_0" dir="l" state="M"/>
    <connection from="-E7" to="-E0" fromLane="1" toLane="1" via=":J1_0_1" dir="l" state="M"/>
    <connection from="-E8" to="E6" fromLane="0" toLane="0" via=":J5_0_0" dir="l" state="M"/>
    <connection from="-E8" to="E6" fromLane="1" toLane="1" via=":J5_0_1" dir="l" state="M"/>
    <connection from="E0" to="E7" fromLane="0" toLane="0" via=":J1_2_0" dir="r" state="M"/>
    <connection from="E0" to="E7" fromLane="1" toLane="1" via=":J1_2_1" dir="r" state="M"/>
    <connection from="E2" to="E0" fromLane="0" toLane="0" via=":J0_3_0" tl="J0" linkIndex="3" dir="r" state="o"/>
    <connection from="E2" to="E4" fromLane="1" toLane="1" via=":J0_4_0" tl="J0" linkIndex="4" dir="l" state="o"/>
    <connection from="E3" to="E2" fromLane="0" toLane="0" via=":J3_2_0" tl="J3" linkIndex="2" dir="r" state="O"/>
    <connection from="E3" to="-E6" fromLane="0" toLane="0" via=":J3_3_0" tl="J3" linkIndex="3" dir="s" state="O"/>
    <connection from="E3" to="-E6" fromLane="1" toLane="1" via=":J3_3_1" tl="J3" linkIndex="4" dir="s" state="O"/>
    <connection from="E4" to="-E8" fromLane="0" toLane="0" via=":J4_0_0" dir="l" state="M"/>
    <connection from="E4" to="-E8" fromLane="1" toLane="1" via=":J4_0_1" dir="l" state="M"/>
    <connection from="E6" to="-E3" fromLane="0" toLane="0" via=":J3_5_0" tl="J3" linkIndex="5" dir="s" state="O"/>
    <connection from="E6" to="-E3" fromLane="1" toLane="1" via=":J3_5_1" tl="J3" linkIndex="6" dir="s" state="O"/>
    <connection from="E6" to="E2" fromLane="1" toLane="1" via=":J3_7_0" tl="J3" linkIndex="7" dir="l" state="o"/>
    <connection from="E7" to="E3" fromLane="0" toLane="0" via=":J2_0_0" dir="r" state="M"/>
    <connection from="E7" to="E3" fromLane="1" toLane="1" via=":J2_0_1" dir="r" state="M"/>
    <connection from="E8" to="-E4" fromLane="0" toLane="0" via=":J4_2_0" dir="r" state="M"/>
    <connection from="E8" to="-E4" fromLane="1" toLane="1" via=":J4_2_1" dir="r" state="M"/>

    <connection from=":J0_0" to="E4" fromLane="0" toLane="0" dir="s" state="M"/>
    <connection from=":J0_0" to="E4" fromLane="1" toLane="1" dir="s" state="M"/>
    <connection from=":J0_2" to="-E2" fromLane="0" toLane="1" dir="l" state="M"/>
    <connection from=":J0_3" to="E0" fromLane="0" toLane="0" dir="r" state="M"/>
    <connection from=":J0_4" to="E4" fromLane="0" toLane="1" dir="l" state="M"/>
    <connection from=":J0_5" to="-E2" fromLane="0" toLane="0" dir="r" state="M"/>
    <connection from=":J0_6" to="E0" fromLane="0" toLane="0" dir="s" state="M"/>
    <connection from=":J0_6" to="E0" fromLane="1" toLane="1" dir="s" state="M"/>
    <connection from=":J1_0" to="-E0" fromLane="0" toLane="0" dir="l" state="M"/>
    <connection from=":J1_0" to="-E0" fromLane="1" toLane="1" dir="l" state="M"/>
    <connection from=":J1_2" to="E7" fromLane="0" toLane="0" dir="r" state="M"/>
    <connection from=":J1_2" to="E7" fromLane="1" toLane="1" dir="r" state="M"/>
    <connection from=":J2_0" to="E3" fromLane="0" toLane="0" dir="r" state="M"/>
    <connection from=":J2_0" to="E3" fromLane="1" toLane="1" dir="r" state="M"/>
    <connection from=":J2_2" to="-E7" fromLane="0" toLane="0" dir="l" state="M"/>
    <connection from=":J2_2" to="-E7" fromLane="1" toLane="1" dir="l" state="M"/>
    <connection from=":J3_0" to="-E6" fromLane="0" toLane="0" dir="r" state="M"/>
    <connection from=":J3_1" to="-E3" fromLane="0" toLane="1" dir="l" state="M"/>
    <connection from=":J3_2" to="E2" fromLane="0" toLane="0" dir="r" state="M"/>
    <connection from=":J3_3" to="-E6" fromLane="0" toLane="0" dir="s" state="M"/>
    <connection from=":J3_3" to="-E6" fromLane="1" toLane="1" dir="s" state="M"/>
    <connection from=":J3_5" to="-E3" fromLane="0" toLane="0" dir="s" state="M"/>
    <connection from=":J3_5" to="-E3" fromLane="1" toLane="1" dir="s" state="M"/>
    <connection from=":J3_7" to="E2" fromLane="0" toLane="1" dir="l" state="M"/>
    <connection from=":J4_0" to="-E8" fromLane="0" toLane="0" dir="l" state="M"/>
    <connection from=":J4_0" to="-E8" fromLane="1" toLane="1" dir="l" state="M"/>
    <connection from=":J4_2" to="-E4" fromLane="0" toLane="0" dir="r" state="M"/>
    <connection from=":J4_2" to="-E4" fromLane="1" toLane="1" dir="r" state="M"/>
    <connection from=":J5_0" to="E6" fromLane="0" toLane="0" dir="l" state="M"/>
    <connection from=":J5_0" to="E6" fromLane="1" toLane="1" dir="l" state="M"/>
    <connection from=":J5_2" to="E8" fromLane="0" toLane="0" dir="r" state="M"/>
    <connection from=":J5_2" to="E8" fromLane="1" toLane="1" dir="r" state="M"/>

</net>
